$# LS-DYNA Keyword file created by LS-PrePost(R) V4.10.5-23Jun2023
$# Created on Apr-9-2024 (12:49:33)
*KEYWORD
*TITLE
$#                                                                         title
LS-DYNA keyword deck by LS-PrePost
*CONTROL_TERMINATION
$#  endtim    endcyc     dtmin    endeng    endmas     nosol
1.00000E-6         0       0.0       0.01.000000E8         0
*CONTROL_TIMESTEP
$#  dtinit    tssfac      isdo    tslimt     dt2ms      lctm     erode     ms1st
       0.0       0.0         0       0.0       0.0         5         0         0
*DATABASE_BINARY_D3PLOT
$#      dt      lcdt      beam     npltc    psetid
5.00000E-6         0         0         0         0
*BOUNDARY_SPC_SET_BIRTH_DEATH
$#    nsid       cid      dofx      dofy      dofz     dofrx     dofry     dofrz
         1         0         0         1         0         1         0         1
$#   birth     death
       0.0       0.0
*SET_NODE_LIST_TITLE
NODESET(SPC) 1
$#     sid       da1       da2       da3       da4    solver       its         -
         1       0.0       0.0       0.0       0.0MECH      1                   
$#    nid1      nid2      nid3      nid4      nid5      nid6      nid7      nid8
       173       175       176       177       178       179       180       181
       182       183       184       185       186       187       188       189
       190       191       192       193       194       195       196       197
       198       199       376       377       378       379       380       381
       382       383       384       385       386       387       748       751
       752       755       756       759       760       763       764       767
       768       771       772       774       776       778       780       782
       868       870       872       874       876       878       880       882
       884       886       888       890       928       930       932       934
       936       938      1012      1014      1016      1018      1020      1022
      1024      1026      1028      1030      1032      1034      1108      1110
      1112      1114      1116      1118      1120      1122      1124      1126
      1128      1130      1168      1170      1172      1174      1176      1178
      1252      1254      1256      1258      1260      1262      1264      1266
      1268      1270      1272      1274      1300      1301      1302      1303
      1304      1305      1306      1307      1308      1309      1310      1311
      1342      1343      1344      1345      1346      1347      1372      1373
      1374      1375      1376      1377      1378      1379      1380      1381
      1382      1383      1414      1415      1416      1417      1418      1419
      1420      1421      1422      1423      1424      1425      1438      1439
      1440      1441      1442      1443      1492      1493      1494      1495
      1496      1497      1498      1499      1500      1501      1502      1503
      1516      1517      1518      1519      1520      1521         0         0
*BOUNDARY_SPC_SET_BIRTH_DEATH
$#    nsid       cid      dofx      dofy      dofz     dofrx     dofry     dofrz
         2         0         0         1         0         1         0         1
$#   birth     death
       0.0       0.0
*SET_NODE_LIST_TITLE
NODESET(SPC) 2
$#     sid       da1       da2       da3       da4    solver       its         -
         2       0.0       0.0       0.0       0.0MECH      1                   
$#    nid1      nid2      nid3      nid4      nid5      nid6      nid7      nid8
        73        74        75        76        77        78        79        80
        81        82        83        84        85        86        87        88
        89        90        91        92        93        94        95        96
        97        98       328       329       330       331       332       333
       334       335       336       337       338       339       401       402
       405       406       409       410       413       414       417       418
       421       422       424       426       428       430       432       434
       820       822       824       826       828       830       832       834
       836       838       840       842       904       906       908       910
       912       914       964       966       968       970       972       974
       976       978       980       982       984       986      1060      1062
      1064      1066      1068      1070      1072      1074      1076      1078
      1080      1082      1144      1146      1148      1150      1152      1154
      1204      1206      1208      1210      1212      1214      1216      1218
      1220      1222      1224      1226      1282      1283      1284      1285
      1286      1287      1288      1289      1290      1291      1292      1293
      1324      1325      1326      1327      1328      1329      1360      1361
      1362      1363      1364      1365      1366      1367      1368      1369
      1370      1371      1402      1403      1404      1405      1406      1407
      1408      1409      1410      1411      1412      1413      1432      1433
      1434      1435      1436      1437      1456      1457      1458      1459
      1460      1461      1462      1463      1464      1465      1466      1467
      1480      1481      1482      1483      1484      1485         0         0
*MAT_ELASTIC
$#     mid        ro         e        pr        da        db  not used
         1   0.002649.70000E10      0.31       0.0       0.0       0.0
*MAT_RIGID
$#     mid        ro         e        pr         n    couple         m     alias
         2   0.002649.70000E10      0.31       0.0       0.0       0.0          
$#     cmo      con1      con2
       1.0         7         7
$#lco or a1        a2        a3        v1        v2        v3
       0.0       0.0       0.0       0.0       0.0       0.0
*MAT_RIGID
$#     mid        ro         e        pr         n    couple         m     alias
         3   0.002649.70000E10      0.31       0.0       0.0       0.0          
$#     cmo      con1      con2
       1.0         7         7
$#lco or a1        a2        a3        v1        v2        v3
       0.0       0.0       0.0       0.0       0.0       0.0
*MAT_RIGID
$#     mid        ro         e        pr         n    couple         m     alias
         4   0.002649.70000E10      0.31       0.0       0.0       0.0          
$#     cmo      con1      con2
       1.0         7         7
$#lco or a1        a2        a3        v1        v2        v3
       0.0       0.0       0.0       0.0       0.0       0.0
*MAT_RIGID
$#     mid        ro         e        pr         n    couple         m     alias
         5   0.002649.70000E10      0.31       0.0       0.0       0.0          
$#     cmo      con1      con2
       1.0         7         7
$#lco or a1        a2        a3        v1        v2        v3
       0.0       0.0       0.0       0.0       0.0       0.0
*MAT_RIGID
$#     mid        ro         e        pr         n    couple         m     alias
         6   0.002649.70000E10      0.31       0.0       0.0       0.0          
$#     cmo      con1      con2
       1.0         7         7
$#lco or a1        a2        a3        v1        v2        v3
       0.0       0.0       0.0       0.0       0.0       0.0
*MAT_RIGID
$#     mid        ro         e        pr         n    couple         m     alias
         7   0.002649.70000E10      0.31       0.0       0.0       0.0          
$#     cmo      con1      con2
       1.0         7         7
$#lco or a1        a2        a3        v1        v2        v3
       0.0       0.0       0.0       0.0       0.0       0.0
*MAT_RIGID
$#     mid        ro         e        pr         n    couple         m     alias
         8   0.002649.70000E10      0.31       0.0       0.0       0.0          
$#     cmo      con1      con2
       1.0         7         7
$#lco or a1        a2        a3        v1        v2        v3
       0.0       0.0       0.0       0.0       0.0       0.0
*MAT_RIGID
$#     mid        ro         e        pr         n    couple         m     alias
         9   0.002649.70000E10      0.31       0.0       0.0       0.0          
$#     cmo      con1      con2
       1.0         7         7
$#lco or a1        a2        a3        v1        v2        v3
       0.0       0.0       0.0       0.0       0.0       0.0
*MAT_RIGID
$#     mid        ro         e        pr         n    couple         m     alias
        10   0.002649.70000E10      0.31       0.0       0.0       0.0          
$#     cmo      con1      con2
       1.0         7         7
$#lco or a1        a2        a3        v1        v2        v3
       0.0       0.0       0.0       0.0       0.0       0.0
*MAT_RIGID
$#     mid        ro         e        pr         n    couple         m     alias
        11   0.002649.70000E10      0.31       0.0       0.0       0.0          
$#     cmo      con1      con2
       1.0         7         7
$#lco or a1        a2        a3        v1        v2        v3
       0.0       0.0       0.0       0.0       0.0       0.0
*PART
$#                                                                         title
Armature
$#     pid     secid       mid     eosid      hgid      grav    adpopt      tmid
         5         1         1         0         0         0         0         0
*SECTION_SOLID
$#   secid    elform       aet    unused    unused    unused    cohoff   gaskeit
         1         1         0                                     0.0       0.0
*PART
$#                                                                         title
Copper Rail - Left Inward
$#     pid     secid       mid     eosid      hgid      grav    adpopt      tmid
         6         1         2         0         0         0         0         0
*PART
$#                                                                         title
Copper Rail - Right Inward
$#     pid     secid       mid     eosid      hgid      grav    adpopt      tmid
         7         1         3         0         0         0         0         0
*DEFINE_CURVE
$#    lcid      sidr       sfa       sfo      offa      offo    dattyp     lcint
         4         0     0.001   1000000       0.0       0.0         0         0
$#                a1                  o1
                 0.0               800.0
                 0.2               294.3
                 0.4              108.26
                 0.6              39.829
                 0.8              14.652
                 1.0              5.3903
*DEFINE_CURVE
$#    lcid      sidr       sfa       sfo      offa      offo    dattyp     lcint
         5         0       1.0       1.0       0.0       0.0         0         0
$#                a1                  o1
                 0.0    4.9999998737e-06
    3.0000001425e-04    4.9999998737e-06
*ELEMENT_SOLID
$#   eid     pid      n1      n2      n3      n4      n5      n6      n7      n8
     203       5     304     305     306     307     100      99     102     229
     204       5     308     309     310     311     304     305     306     307
     205       5     312     313     314     315     308     309     310     311
     206       5     316     317     318     319     312     313     314     315
     207       5     320     321     322     323     316     317     318     319
     208       5     324     325     326     327     320     321     322     323
     209       5     328     304     307     329      74     100     229      98
     210       5     330     308     311     331     328     304     307     329
     211       5     332     312     315     333     330     308     311     331
     212       5     334     316     319     335     332     312     315     333
     213       5     336     320     323     337     334     316     319     335
     214       5     338     324     327     339     336     320     323     337
     215       5     306     340     341     307     102     103     230     229
     216       5     310     342     343     311     306     340     341     307
     217       5     314     344     345     315     310     342     343     311
     218       5     318     346     347     319     314     344     345     315
     219       5     322     348     349     323     318     346     347     319
     220       5     326     350     351     327     322     348     349     323
     221       5     352     353     354     355     150     174     231     172
     222       5     356     357     358     359     352     353     354     355
$ ... 3392 like lines cut
*NODE
$#   nid               x               y               z      tc      rc
       1            50.0       -5.999999            -3.0       0       0
       2            50.0           -12.0            -3.0       0       0
       3            50.0       -7.199999            -3.0       0       0
       4            50.0       -8.399999            -3.0       0       0
       5            50.0       -9.599998            -3.0       0       0
       6            50.0           -10.8            -3.0       0       0
       7            50.0       -5.999999             3.0       0       0
       8            50.0       -5.999999             1.8       0       0
       9            50.0       -5.999999             0.6       0       0
      10            50.0       -5.999999            -0.6       0       0
      11            50.0       -5.999999            -1.8       0       0
      12            50.0           -12.0             3.0       0       0
      13            50.0           -10.8             3.0       0       0
      14            50.0       -9.599998             3.0       0       0
      15            50.0       -8.399999             3.0       0       0
      16            50.0       -7.199999             3.0       0       0
      17            50.0           -12.0            -1.8       0       0
      18            50.0           -12.0            -0.6       0       0
      19            50.0           -12.0             0.6       0       0
      20            50.0           -12.0             1.8       0       0
$ ... 5269 like lines cut
*SET_SEGMENT_TITLE
Input Current
$#     sid       da1       da2       da3       da4    solver       its         -
         1       0.0       0.0       0.0       0.0MECH               0          
$#      n1        n2        n3        n4        a1        a2        a3        a4
        11        22         3         1       0.0       0.0       0.0       0.0
        22        25         4         3       0.0       0.0       0.0       0.0
        25        24         5         4       0.0       0.0       0.0       0.0
        21        17         2         6       0.0       0.0       0.0       0.0
        24        21         6         5       0.0       0.0       0.0       0.0
        23         8         7        16       0.0       0.0       0.0       0.0
        23        31         9         8       0.0       0.0       0.0       0.0
        31        29        10         9       0.0       0.0       0.0       0.0
        29        22        11        10       0.0       0.0       0.0       0.0
        20        27        13        12       0.0       0.0       0.0       0.0
        27        28        14        13       0.0       0.0       0.0       0.0
        28        26        15        14       0.0       0.0       0.0       0.0
        26        23        16        15       0.0       0.0       0.0       0.0
        21        32        18        17       0.0       0.0       0.0       0.0
        32        30        19        18       0.0       0.0       0.0       0.0
        30        27        20        19       0.0       0.0       0.0       0.0
        24        36        32        21       0.0       0.0       0.0       0.0
        29        33        25        22       0.0       0.0       0.0       0.0
        33        36        24        25       0.0       0.0       0.0       0.0
        34        31        23        26       0.0       0.0       0.0       0.0
$ ... 5 like lines cut
*SET_SEGMENT_TITLE
Output Current
$#     sid       da1       da2       da3       da4    solver       its         -
         2       0.0       0.0       0.0       0.0MECH               0          
$#      n1        n2        n3        n4        a1        a2        a3        a4
        66        39        37        47       0.0       0.0       0.0       0.0
        66        68        40        39       0.0       0.0       0.0       0.0
        68        67        41        40       0.0       0.0       0.0       0.0
        57        53        38        42       0.0       0.0       0.0       0.0
        67        57        42        41       0.0       0.0       0.0       0.0
        52        61        44        43       0.0       0.0       0.0       0.0
        61        64        45        44       0.0       0.0       0.0       0.0
        64        65        46        45       0.0       0.0       0.0       0.0
        65        66        47        46       0.0       0.0       0.0       0.0
        56        58        49        48       0.0       0.0       0.0       0.0
        58        63        50        49       0.0       0.0       0.0       0.0
        63        62        51        50       0.0       0.0       0.0       0.0
        62        61        52        51       0.0       0.0       0.0       0.0
        57        59        54        53       0.0       0.0       0.0       0.0
        59        60        55        54       0.0       0.0       0.0       0.0
        60        58        56        55       0.0       0.0       0.0       0.0
        69        59        57        67       0.0       0.0       0.0       0.0
        72        63        58        60       0.0       0.0       0.0       0.0
        69        72        60        59       0.0       0.0       0.0       0.0
        71        64        61        62       0.0       0.0       0.0       0.0
$ ... 5 like lines cut
*SET_SEGMENT_TITLE
Imposed Current
$#     sid       da1       da2       da3       da4    solver       its         -
         3       0.0       0.0       0.0       0.0MECH               0          
$#      n1        n2        n3        n4        a1        a2        a3        a4
       595       594       592       593       0.0       0.0       0.0       0.0
       595       593      1684      1685       0.0       0.0       0.0       0.0
       597       596       594       595       0.0       0.0       0.0       0.0
       597       595      1685      1686       0.0       0.0       0.0       0.0
       599       598       596       597       0.0       0.0       0.0       0.0
       599       597      1686      1687       0.0       0.0       0.0       0.0
       601       600       598       599       0.0       0.0       0.0       0.0
       601       599      1687      1688       0.0       0.0       0.0       0.0
       603       602       600       601       0.0       0.0       0.0       0.0
       603       601      1688      1689       0.0       0.0       0.0       0.0
       593       248       137      1684       0.0       0.0       0.0       0.0
       593       592       214       248       0.0       0.0       0.0       0.0
*EM_CONTROL
$#   emsol     numls   macrodt   dimtype    nperio         -   ncylfem   ncylbem
         1       100       0.0         0         2                5000      5000
*EM_CONTROL_CONTACT
$#    emct    cconly     ctype    cotype      eps1      eps2      eps3        d0
         1         0         0         0       0.0       0.0       0.0       0.0
*EM_DATABASE_CIRCUIT
$#   outlv     dtout
         0       0.0
*EM_DATABASE_GLOBALENERGY
$#   outlv     dtout
         0       0.0
*EM_DATABASE_PARTDATA
$#   outlv     dtout
         0       0.0
*EM_OUTPUT
$#    mats      matf      sols      solf      mesh       mem    timing
         2         2         2         2         1         1         1
*EM_SOLVER_BEM
$#  reltol    maxite     stype    precon   uselast  ncyclbem
     0.001      1000         2         2         1        10
*EM_SOLVER_BEMMAT
$#   matid    unused    unused    unused    unused    unused    unused    reltol
         1                                                                 0.001
*EM_SOLVER_FEM
$#  reltol    maxite     stype    precon   uselast  ncyclfem
     0.001      1000         1         1         1        10
*EM_SOLVER_BEMMAT
$#   matid    unused    unused    unused    unused    unused    unused    reltol
         2                                                                 0.001
*EM_CONTROL_TIMESTEP
$#  tstype    dtcons      lcid    factor     tsmin     tsmas     rlcsf    mecats
         15.00000E-6         0       1.0       0.0       0.0        25         0
*EM_MAT_001
$#     mid     mtype     sigma     eosid    unused  eplambda    deatht   rdltype
         1         2      25.0         0                 0.01.00000E28         0
*EM_MAT_001
$#     mid     mtype     sigma     eosid    unused  eplambda    deatht   rdltype
         2         2      25.0         0                 0.01.00000E28         0
*EM_MAT_001
$#     mid     mtype     sigma     eosid    unused  eplambda    deatht   rdltype
         3         2      25.0         0                 0.01.00000E28         0
*EM_MAT_001
$#     mid     mtype     sigma     eosid    unused  eplambda    deatht   rdltype
         4         2      25.0         0                 0.01.00000E28         0
*EM_MAT_001
$#     mid     mtype     sigma     eosid    unused  eplambda    deatht   rdltype
         5         2      25.0         0                 0.01.00000E28         0
*EM_MAT_001
$#     mid     mtype     sigma     eosid    unused  eplambda    deatht   rdltype
         6         2      25.0         0                 0.01.00000E28         0
*EM_MAT_001
$#     mid     mtype     sigma     eosid    unused  eplambda    deatht   rdltype
         7         2      25.0         0                 0.01.00000E28         0
*EM_MAT_001
$#     mid     mtype     sigma     eosid    unused  eplambda    deatht   rdltype
         8         2      25.0         0                 0.01.00000E28         0
*EM_MAT_001
$#     mid     mtype     sigma     eosid    unused  eplambda    deatht   rdltype
         9         2      25.0         0                 0.01.00000E28         0
*EM_MAT_001
$#     mid     mtype     sigma     eosid    unused  eplambda    deatht   rdltype
        10         2      25.0         0                 0.01.00000E28         0
*EM_MAT_001
$#     mid     mtype     sigma     eosid    unused  eplambda    deatht   rdltype
        11         2      25.0         0                 0.01.00000E28         0
*EM_CIRCUIT
$#  circid   circtyp      lcid       r/f       l/a      c/t0        v0        t0
         1         1         4       0.0       0.0       0.0       0.0       0.0
$# sidcurr    sidvin   sidvout    partid
         3         1         2         0
*END
