$# LS-DYNA Keyword file created by LS-PrePost(R) V4.10.5-23Jun2023
$# Created on Apr-10-2024 (01:05:51)
*KEYWORD
*TITLE
$#                                                                         title
EM Railgun example
*CONTROL_TERMINATION
$   ENDTIM    ENDCYC     DTMIN    ENDENG    ENDMAS
$#  endtim    endcyc     dtmin    endeng    endmas     nosol
&t_end             0       0.0       0.01.000000E8         0
*CONTROL_TIMESTEP
$#  dtinit    tssfac      isdo    tslimt     dt2ms      lctm     erode     ms1st
       0.0       0.0         0       0.0       0.0         5         0         0
*MAT_ELASTIC
$#     mid        ro         e        pr        da        db  not used
         1&struc_rho&struc_e  &struc_nu        0.0       0.0       0.0
*MAT_RIGID
$#     mid        ro         e        pr         n    couple         m     alias
         2&struc_rho&struc_e  &struc_nu        0.0       0.0       0.0          
$#     cmo      con1      con2
       1.0         7         7
$#lco or a1        a2        a3        v1        v2        v3
       0.0       0.0       0.0       0.0       0.0       0.0
*MAT_RIGID
$#     mid        ro         e        pr         n    couple         m     alias
         3&struc_rho&struc_e  &struc_nu        0.0       0.0       0.0          
$#     cmo      con1      con2
       1.0         7         7
$#lco or a1        a2        a3        v1        v2        v3
       0.0       0.0       0.0       0.0       0.0       0.0
*DEFINE_CURVE
$ solid mechanics time step curve limiter
$#    lcid      sidr       sfa       sfo      offa      offo    dattyp     lcint
         5         0       1.0       1.0       0.0       0.0         0         0
$#                a1                  o1
                 0.0&struc_dt           
&t_end              &struc_dt           
*DEFINE_CURVE
$Strain, Stress (MPa)
$     LCID      SIDR       SFA       SFO      OFFA      OFFO    DATTYP
$--------1---------2---------3---------4---------5---------6---------7---------8
$#    lcid      sidr       sfa       sfo      offa      offo    dattyp     lcint
        15         0       1.0   1000000       0.0       0.0         0         0
$#                a1                  o1
                 0.0                97.7
               0.004             105.904
               0.008             113.737
               0.013             121.214
               0.017              128.35
               0.021             135.161
               0.025             141.659
                0.03             147.858
               0.034             153.773
               0.038             159.414
               0.042             164.796
               0.046             169.929
               0.051             174.825
               0.055             179.496
               0.059             183.952
               0.063             188.204
               0.067             192.261
               0.072             196.134
               0.076             199.832
                0.08             203.363
$ ... 87 like lines cut
*SECTION_SOLID
$      sid    elform
$#   secid    elform       aet    unused    unused    unused    cohoff   gaskeit
         1         1         0                                     0.0       0.0
*END
