$# LS-DYNA Keyword file created by LS-PrePost(R) V4.10.5-23Jun2023
$# Created on Apr-9-2024 (03:06:27)
*KEYWORD
*TITLE
$#                                                                         title
LS-DYNA keyword deck by LS-PrePost
*CONTROL_TERMINATION
$#  endtim    endcyc     dtmin    endeng    endmas     nosol
3.00000E-4         0       0.0       0.01.000000E8         0
*CONTROL_TIMESTEP
$#  dtinit    tssfac      isdo    tslimt     dt2ms      lctm     erode     ms1st
       0.0       0.0         0       0.0       0.0         5         0         0
*DATABASE_BINARY_D3PLOT
$#      dt      lcdt      beam     npltc    psetid
5.00000E-6         0         0         0         0
*BOUNDARY_SPC_SET_BIRTH_DEATH
$#    nsid       cid      dofx      dofy      dofz     dofrx     dofry     dofrz
         1         0         0         1         0         1         0         1
$#   birth     death
       0.0       0.0
*SET_NODE_LIST_TITLE
NODESET(SPC) 1
$#     sid       da1       da2       da3       da4    solver       its         -
         1       0.0       0.0       0.0       0.0MECH      1                  
$#    nid1      nid2      nid3      nid4      nid5      nid6      nid7      nid8
       364       366       367       368       369       370       371       372
       373       374       375       376       377       378       379       380
       381       382       383       384       385       386       387       388
       389       390      2167      2168      2169      2170      2171      2172
      2173      2174      2175      2176      2177      2178      2539      2542
      2543      2546      2547      2550      2551      2554      2555      2558
      2559      2562      2563      2565      2567      2569      2571      2573
      2659      2661      2663      2665      2667      2669      2671      2673
      2675      2677      2679      2681      2719      2721      2723      2725
      2727      2729      2803      2805      2807      2809      2811      2813
      2815      2817      2819      2821      2823      2825      2899      2901
      2903      2905      2907      2909      2911      2913      2915      2917
      2919      2921      2959      2961      2963      2965      2967      2969
      3043      3045      3047      3049      3051      3053      3055      3057
      3059      3061      3063      3065      3091      3092      3093      3094
      3095      3096      3097      3098      3099      3100      3101      3102
      3133      3134      3135      3136      3137      3138      3163      3164
      3165      3166      3167      3168      3169      3170      3171      3172
      3173      3174      3205      3206      3207      3208      3209      3210
      3211      3212      3213      3214      3215      3216      3229      3230
      3231      3232      3233      3234      3283      3284      3285      3286
      3287      3288      3289      3290      3291      3292      3293      3294
      3307      3308      3309      3310      3311      3312         0         0
*BOUNDARY_SPC_SET_BIRTH_DEATH
$#    nsid       cid      dofx      dofy      dofz     dofrx     dofry     dofrz
         2         0         0         1         0         1         0         1
$#   birth     death
       0.0       0.0
*SET_NODE_LIST_TITLE
NODESET(SPC) 2
$#     sid       da1       da2       da3       da4    solver       its         -
         2       0.0       0.0       0.0       0.0MECH      1                  
$#    nid1      nid2      nid3      nid4      nid5      nid6      nid7      nid8
       264       265       266       267       268       269       270       271
       272       273       274       275       276       277       278       279
       280       281       282       283       284       285       286       287
       288       289      2119      2120      2121      2122      2123      2124
      2125      2126      2127      2128      2129      2130      2192      2193
      2196      2197      2200      2201      2204      2205      2208      2209
      2212      2213      2215      2217      2219      2221      2223      2225
      2611      2613      2615      2617      2619      2621      2623      2625
      2627      2629      2631      2633      2695      2697      2699      2701
      2703      2705      2755      2757      2759      2761      2763      2765
      2767      2769      2771      2773      2775      2777      2851      2853
      2855      2857      2859      2861      2863      2865      2867      2869
      2871      2873      2935      2937      2939      2941      2943      2945
      2995      2997      2999      3001      3003      3005      3007      3009
      3011      3013      3015      3017      3073      3074      3075      3076
      3077      3078      3079      3080      3081      3082      3083      3084
      3115      3116      3117      3118      3119      3120      3151      3152
      3153      3154      3155      3156      3157      3158      3159      3160
      3161      3162      3193      3194      3195      3196      3197      3198
      3199      3200      3201      3202      3203      3204      3223      3224
      3225      3226      3227      3228      3247      3248      3249      3250
      3251      3252      3253      3254      3255      3256      3257      3258
      3271      3272      3273      3274      3275      3276         0         0
*MAT_ELASTIC
$#     mid        ro         e        pr        da        db  not used
         1   0.002649.70000E10      0.31       0.0       0.0       0.0
*MAT_RIGID
$#     mid        ro         e        pr         n    couple         m     alias
         2   0.002649.70000E10      0.31       0.0       0.0       0.0          
$#     cmo      con1      con2
       1.0         7         7
$#lco or a1        a2        a3        v1        v2        v3
       0.0       0.0       0.0       0.0       0.0       0.0
*MAT_RIGID
$#     mid        ro         e        pr         n    couple         m     alias
         3   0.002649.70000E10      0.31       0.0       0.0       0.0          
$#     cmo      con1      con2
       1.0         7         7
$#lco or a1        a2        a3        v1        v2        v3
       0.0       0.0       0.0       0.0       0.0       0.0
*MAT_RIGID
$#     mid        ro         e        pr         n    couple         m     alias
         4   0.002649.70000E10      0.31       0.0       0.0       0.0          
$#     cmo      con1      con2
       1.0         7         7
$#lco or a1        a2        a3        v1        v2        v3
       0.0       0.0       0.0       0.0       0.0       0.0
*MAT_RIGID
$#     mid        ro         e        pr         n    couple         m     alias
         5   0.002649.70000E10      0.31       0.0       0.0       0.0          
$#     cmo      con1      con2
       1.0         7         7
$#lco or a1        a2        a3        v1        v2        v3
       0.0       0.0       0.0       0.0       0.0       0.0
*MAT_RIGID
$#     mid        ro         e        pr         n    couple         m     alias
         6   0.002649.70000E10      0.31       0.0       0.0       0.0          
$#     cmo      con1      con2
       1.0         7         7
$#lco or a1        a2        a3        v1        v2        v3
       0.0       0.0       0.0       0.0       0.0       0.0
*MAT_RIGID
$#     mid        ro         e        pr         n    couple         m     alias
         7   0.002649.70000E10      0.31       0.0       0.0       0.0          
$#     cmo      con1      con2
       1.0         7         7
$#lco or a1        a2        a3        v1        v2        v3
       0.0       0.0       0.0       0.0       0.0       0.0
*MAT_RIGID
$#     mid        ro         e        pr         n    couple         m     alias
         8   0.002649.70000E10      0.31       0.0       0.0       0.0          
$#     cmo      con1      con2
       1.0         7         7
$#lco or a1        a2        a3        v1        v2        v3
       0.0       0.0       0.0       0.0       0.0       0.0
*MAT_RIGID
$#     mid        ro         e        pr         n    couple         m     alias
         9   0.002649.70000E10      0.31       0.0       0.0       0.0          
$#     cmo      con1      con2
       1.0         7         7
$#lco or a1        a2        a3        v1        v2        v3
       0.0       0.0       0.0       0.0       0.0       0.0
*MAT_RIGID
$#     mid        ro         e        pr         n    couple         m     alias
        10   0.002649.70000E10      0.31       0.0       0.0       0.0          
$#     cmo      con1      con2
       1.0         7         7
$#lco or a1        a2        a3        v1        v2        v3
       0.0       0.0       0.0       0.0       0.0       0.0
*MAT_RIGID
$#     mid        ro         e        pr         n    couple         m     alias
        11   0.002649.70000E10      0.31       0.0       0.0       0.0          
$#     cmo      con1      con2
       1.0         7         7
$#lco or a1        a2        a3        v1        v2        v3
       0.0       0.0       0.0       0.0       0.0       0.0
*PART
$#                                                                         title
Armature
$#     pid     secid       mid     eosid      hgid      grav    adpopt      tmid
         5         1         1         0         0         0         0         0
*SECTION_SOLID
$#   secid    elform       aet    unused    unused    unused    cohoff   gaskeit
         1         1         0                                     0.0       0.0
*PART
$#                                                                         title
Left Inward
$#     pid     secid       mid     eosid      hgid      grav    adpopt      tmid
         6         1         2         0         0         0         0         0
*PART
$#                                                                         title
Right Inward
$#     pid     secid       mid     eosid      hgid      grav    adpopt      tmid
         7         1         3         0         0         0         0         0
*DEFINE_CURVE
$#    lcid      sidr       sfa       sfo      offa      offo    dattyp     lcint
         4         0     0.001   1000000       0.0       0.0         0         0
$#                a1                  o1
                 0.0               800.0
                 0.2               294.3
                 0.4              108.26
                 0.6              39.829
                 0.8              14.652
                 1.0              5.3903
*DEFINE_CURVE
$#    lcid      sidr       sfa       sfo      offa      offo    dattyp     lcint
         5         0       1.0       1.0       0.0       0.0         0         0
$#                a1                  o1
                 0.0    4.9999998737e-06
    3.0000001425e-04    4.9999998737e-06
*ELEMENT_SOLID
$#   eid     pid      n1      n2      n3      n4      n5      n6      n7      n8
     323       5     495     496     497     498     234     232     238     244
     324       5     499     500     501     502     495     496     497     498
     325       5     503     504     505     506     499     500     501     502
     326       5     507     508     509     510     503     504     505     506
     327       5     511     512     513     514     507     508     509     510
     328       5     515     516     517     518     511     512     513     514
     329       5     519     520     521     522     515     516     517     518
     330       5     523     524     525     526     519     520     521     522
     331       5     527     528     529     530     523     524     525     526
     332       5     531     532     533     534     527     528     529     530
     333       5     535     536     537     538     531     532     533     534
     334       5     539     540     541     542     535     536     537     538
     335       5     543     544     545     546     539     540     541     542
     336       5     547     548     549     550     543     544     545     546
     337       5     551     552     553     554     547     548     549     550
     338       5     555     556     557     558     551     552     553     554
     339       5     559     560     561     562     555     556     557     558
     340       5     563     564     565     566     559     560     561     562
     341       5     567     568     569     570     563     564     565     566
     342       5     571     572     573     574     567     568     569     570
$ ... 1792 like lines cut
*NODE
$#   nid               x               y               z      tc      rc
     232            50.0            -6.0            -3.0       0       0
     233            50.0           -12.0            -3.0       0       0
     234            50.0            -8.0            -3.0       0       0
     235            50.0           -10.0            -3.0       0       0
     236            50.0            -6.0             3.0       0       0
     237            50.0            -6.0             1.0       0       0
     238            50.0            -6.0            -1.0       0       0
     239            50.0           -12.0             3.0       0       0
     240            50.0           -10.0             3.0       0       0
     241            50.0            -8.0             3.0       0       0
     242            50.0           -12.0            -1.0       0       0
     243            50.0           -12.0             1.0       0       0
     244            50.0            -8.0            -1.0       0       0
     245            50.0            -8.0             1.0       0       0
     246            50.0           -10.0            -1.0       0       0
     247            50.0           -10.0             1.0       0       0
     248            50.0            12.0            -3.0       0       0
     249            50.0             6.0            -3.0       0       0
     250            50.0            10.0            -3.0       0       0
     251            50.0             8.0            -3.0       0       0
$ ... 3229 like lines cut
*SET_SEGMENT_TITLE
Input Current
$#     sid       da1       da2       da3       da4    solver       its         -
         1       0.0       0.0       0.0       0.0MECH               0          
$#      n1        n2        n3        n4        a1        a2        a3        a4
       238       244       234       232       0.0       0.0       0.0       0.0
       246       242       233       235       0.0       0.0       0.0       0.0
       244       246       235       234       0.0       0.0       0.0       0.0
       245       237       236       241       0.0       0.0       0.0       0.0
       245       244       238       237       0.0       0.0       0.0       0.0
       243       247       240       239       0.0       0.0       0.0       0.0
       247       245       241       240       0.0       0.0       0.0       0.0
       246       247       243       242       0.0       0.0       0.0       0.0
       247       246       244       245       0.0       0.0       0.0       0.0
*SET_SEGMENT_TITLE
Output Current
$#     sid       da1       da2       da3       da4    solver       its         -
         2       0.0       0.0       0.0       0.0MECH               0          
$#      n1        n2        n3        n4        a1        a2        a3        a4
       254       262       250       248       0.0       0.0       0.0       0.0
       260       258       249       251       0.0       0.0       0.0       0.0
       262       260       251       250       0.0       0.0       0.0       0.0
       263       253       252       257       0.0       0.0       0.0       0.0
       263       262       254       253       0.0       0.0       0.0       0.0
       259       261       256       255       0.0       0.0       0.0       0.0
       261       263       257       256       0.0       0.0       0.0       0.0
       260       261       259       258       0.0       0.0       0.0       0.0
       262       263       261       260       0.0       0.0       0.0       0.0
*SET_SEGMENT_TITLE
Imposed Current
$#     sid       da1       da2       da3       da4    solver       its         -
         3       0.0       0.0       0.0       0.0MECH               0          
$#      n1        n2        n3        n4        a1        a2        a3        a4
      2386      2385      2383      2384       0.0       0.0       0.0       0.0
      2386      2384      3475      3476       0.0       0.0       0.0       0.0
      2388      2387      2385      2386       0.0       0.0       0.0       0.0
      2388      2386      3476      3477       0.0       0.0       0.0       0.0
      2390      2389      2387      2388       0.0       0.0       0.0       0.0
      2390      2388      3477      3478       0.0       0.0       0.0       0.0
      2392      2391      2389      2390       0.0       0.0       0.0       0.0
      2392      2390      3478      3479       0.0       0.0       0.0       0.0
      2394      2393      2391      2392       0.0       0.0       0.0       0.0
      2394      2392      3479      3480       0.0       0.0       0.0       0.0
      2384       439       328      3475       0.0       0.0       0.0       0.0
      2384      2383       405       439       0.0       0.0       0.0       0.0
*EM_CONTROL
$#   emsol     numls   macrodt   dimtype    nperio         -   ncylfem   ncylbem
         1       100       0.0         0         2                5000      5000
*EM_CONTROL_CONTACT
$#    emct    cconly     ctype    cotype      eps1      eps2      eps3        d0
         1         0         0         0       0.3       0.3       0.3       0.0
*EM_DATABASE_CIRCUIT
$#   outlv     dtout
         1       0.0
*EM_DATABASE_GLOBALENERGY
$#   outlv     dtout
         1       0.0
*EM_DATABASE_PARTDATA
$#   outlv     dtout
         1       0.0
*EM_OUTPUT
$#    mats      matf      sols      solf      mesh       mem    timing
         2         2         2         2         1         1         1
*EM_SOLVER_BEM
$#  reltol    maxite     stype    precon   uselast  ncyclbem
1.00000E-6      1000         2         2         1         3
*EM_SOLVER_BEMMAT
$#   matid    unused    unused    unused    unused    unused    unused    reltol
         1                                                            1.00000E-6
*EM_SOLVER_FEM
$#  reltol    maxite     stype    precon   uselast  ncyclfem
     0.001      1000         1         1         1         3
*EM_SOLVER_BEMMAT
$#   matid    unused    unused    unused    unused    unused    unused    reltol
         2                                                            1.00000E-6
*EM_CONTROL_TIMESTEP
$#  tstype    dtcons      lcid    factor     tsmin     tsmas     rlcsf    mecats
         15.00000E-6         0       1.0       0.0       0.0        25         0
*EM_MAT_001
$#     mid     mtype     sigma     eosid    unused  eplambda    deatht   rdltype
         1         2      25.0         0                 0.01.00000E28         0
*EM_MAT_001
$#     mid     mtype     sigma     eosid    unused  eplambda    deatht   rdltype
         2         2      25.0         0                 0.01.00000E28         0
*EM_MAT_001
$#     mid     mtype     sigma     eosid    unused  eplambda    deatht   rdltype
         3         2      25.0         0                 0.01.00000E28         0
*EM_MAT_001
$#     mid     mtype     sigma     eosid    unused  eplambda    deatht   rdltype
         4         2      25.0         0                 0.01.00000E28         0
*EM_MAT_001
$#     mid     mtype     sigma     eosid    unused  eplambda    deatht   rdltype
         5         2      25.0         0                 0.01.00000E28         0
*EM_MAT_001
$#     mid     mtype     sigma     eosid    unused  eplambda    deatht   rdltype
         6         2      25.0         0                 0.01.00000E28         0
*EM_MAT_001
$#     mid     mtype     sigma     eosid    unused  eplambda    deatht   rdltype
         7         2      25.0         0                 0.01.00000E28         0
*EM_MAT_001
$#     mid     mtype     sigma     eosid    unused  eplambda    deatht   rdltype
         8         2      25.0         0                 0.01.00000E28         0
*EM_MAT_001
$#     mid     mtype     sigma     eosid    unused  eplambda    deatht   rdltype
         9         2      25.0         0                 0.01.00000E28         0
*EM_MAT_001
$#     mid     mtype     sigma     eosid    unused  eplambda    deatht   rdltype
        10         2      25.0         0                 0.01.00000E28         0
*EM_MAT_001
$#     mid     mtype     sigma     eosid    unused  eplambda    deatht   rdltype
        11         2      25.0         0                 0.01.00000E28         0
*EM_CIRCUIT
$#  circid   circtyp      lcid       r/f       l/a      c/t0        v0        t0
         1         1         4       0.0       0.0       0.0       0.0       0.0
$# sidcurr    sidvin   sidvout    partid
         3         1         2         0
*END
